2024_grid_models/IEEE_39_Bus_modified.uct
##C 2007.05.01
Generated by Ewerszumrode on 2024-03-14
   This is a modified Version of the IEEE_39-Bus grid adapted from MATPOWER 7.1 [1,2]
   
   Further modifications include: 
   - Addition of lines to obtain a more meshed network structure 
   - Addition of double busbars and busbar couplers
   - Adaption of Line parameters: Typical line reactance and resistance parameters were take from [3], 
   Current limits where adapted to provoke overloads (in n-1 case)
   
   The purpose of the modifications is to use the grid model to optimize redispatch and grid topology to avoid overloads. 
   In particular, a more meshed grid structure was created to enable the sensible adaptation of the grid topology.
   
   [1] R. D. Zimmerman, C. E. Murillo-Sanchez, and R. J. Thomas, 
   “MATPOWER: Steady-State Operations, Planning and Analysis Tools for Power Systems Research and Education,” 
   Power Systems, IEEE Transactions on, vol. 26, no. 1, pp. 12–19, Feb. 2011.
   [2] R. D. Zimmerman and C. E. Murillo-Sanchez. (2020). MATPOWER
   757 (Version 7.1). [Online]. Available: https://matpower.org
   [3] PSCAD(TM) "Technical Specifications - IEEE 39 Bus System", May 22, 2018. 
   Available: https://www.pscad.com/knowledge-base/article/28

##N
##ZIEEE
BUS_1 2               0 0
BUS_102               0 0
BUS_112               0 0
BUS_125               0 0        253.303 88.0000
BUS_132               0 0
BUS_142               0 0
BUS_152               0 0        171.115 153.000
BUS_16_1              0 0
BUS_16_2              0 0        563.198 32.3000
BUS_17-1              0 0
BUS_17_2              0 0
BUS_18_1              0 0        65.4062 30.0000
BUS_18_2              0 0
BUS_192               0 0
BUS_205               0 0        114.090 103.000
BUS_212               0 0        251.524 115.000
BUS_22_1              0 0
BUS_22_2              0 0
BUS_23_1              0 0
BUS_23_2              0 0        99.9854 84.6000
BUS_242               0 0        156.841 -92.000
BUS_252               0 0        95.5287 47.2000
BUS_26_1              0 0        60.0677 17.0000
BUS_26_2              0 0
BUS_27_1              0 2 27.000                 -508.00 -249.79 .000000 -508.00
BUS_27_2              0 0        133.220 75.5000
BUS_282               0 0        102.435 26.9000
BUS_292               0 0        151.394 26.9000
BUS_2_1               0 0
BUS_2_2               0 0
BUS_307               0 2 27.000                 -280.00 -64.516 450.000 -450.00
BUS_317               0 2 27.000 4.72956 4.60000 -300.00 -151.59 .000000 -300.00
BUS_327               0 2 27.000                 .000000 -146.71 .000000 -650.00
BUS_337               0 2 27.000                 -632.00 -213.70 .000000 -632.00
BUS_357               0 2 27.000                 .000000 -156.91 .000000 -650.00
BUS_367               0 2 27.000                 30.0018 -166.00 650.000 -1050.0
BUS_377               0 3 27.000                 -14.626 -71.726 .000000 -540.00
BUS_387               0 2 27.000                 -277.91 -84.646 .000000 -830.00
BUS_392               0 2 238.00 167.106 250.000 -1000.0 -679.09 .000000 -1000.0
BUS_3_1               0 0
BUS_3_2               0 0        168.578 2.40000
BUS_4_1               0 0
BUS_4_2               0 0        225.562 184.000
BUS_5 2               0 0
BUS_6_1               0 0
BUS_6_2               0 0
BUS_7 2               0 0        121.963 84.0000
BUS_8_1               0 0
BUS_8_2               0 0        3.67267 176.000
BUS_9 2               0 0
##L
BUS_1 2  BUS_2_1  1 0 3.9140 21.742 218.6549   1000
BUS_1 2  BUS_2_2  1 0 3.9140 21.742 218.6549   1000
BUS_1 2  BUS_392  1 0 2.3810 13.225 132.8894   1800
BUS_102  BUS_112  1 0 .40900 2.2750 22.93363   1800
BUS_102  BUS_132  1 0 .40900 2.2750 22.93363   1800
BUS_112  BUS_6_1  1 0 .78100 4.3380 43.66814   1200
BUS_112  BUS_6_2  1 0 .78100 4.3380 43.66814   1200
BUS_132  BUS_142  1 0 .96200 5.3430 53.72124   1800
BUS_142  BUS_152  1 0 2.0660 11.479 115.2965   1400
BUS_142  BUS_4_1  1 0 1.2280 6.8240 68.48673   1000
BUS_142  BUS_4_2  1 0 1.2280 6.8240 68.48673   1000
BUS_152  BUS_16_1 1 0 .89500 4.9730 49.95133   1000
BUS_152  BUS_16_2 2 0 .89500 4.9730 49.95133   1000
BUS_16_1 BUS_16_2 1 2 .00000 .00000 .0000000
BUS_16_1 BUS_17-1 1 0 .84700 4.7080 47.43805   1400
BUS_16_1 BUS_17_2 1 0 .84700 4.7080 47.43805   1500
BUS_16_1 BUS_192  1 0 1.8570 10.316 103.6726   2500
BUS_16_1 BUS_212  1 0 1.2850 7.1420 71.94248   1000
BUS_16_1 BUS_242  1 0 .56200 3.1210 31.41593   1200
BUS_16_2 BUS_17-1 2 0 .84700 4.7080 47.43805   1400
BUS_16_2 BUS_192  2 0 1.8750 10.316 103.6726   2500
BUS_16_2 BUS_212  2 0 1.2850 7.1420 71.94248   1000
BUS_16_2 BUS_242  2 0 .56200 3.1210 31.41593   1200
BUS_17-1 BUS_17_2 1 2 .00000 .00000 .0000000
BUS_17-1 BUS_18_2 1 0 .78100 4.3880 43.66814   1400
BUS_17-1 BUS_27_2 1 0 1.6470 9.1520 92.04867   1800
BUS_17_2 BUS_18_1 1 0 .78100 4.3380 43.66814   1400
BUS_17_2 BUS_27_2 1 0 1.6470 9.1520 92.04867   1200
BUS_18_1 BUS_18_2 1 2 .00000 .00000 .0000000
BUS_18_1 BUS_3_2  1 0 1.2660 7.0360 80.11062   1400
BUS_18_2 BUS_3_1  1 0 1.2660 7.0360 70.68584   1400
BUS_212  BUS_22_1 1 0 1.3330 7.4060 74.45575    800
BUS_212  BUS_22_1 2 0 1.3330 7.4060 74.45575    800
BUS_212  BUS_22_2 3 0 1.3330 7.4060 74.45575    800
BUS_22_1 BUS_22_2 1 7 .00000 .00000 .0000000
BUS_22_1 BUS_23_1 1 8 .91400 5.0780 51.20796    800
BUS_22_1 BUS_23_1 2 0 .91400 5.0780 51.20796    800
BUS_22_2 BUS_23_1 3 0 .91400 5.0780 51.20796    800
BUS_23_1 BUS_23_2 1 2 .00000 .00000 .0000000
BUS_23_1 BUS_242  1 0 3.3330 18.515 185.9823    600
BUS_23_1 BUS_242  2 0 3.3330 18.515 185.9823    600
BUS_23_2 BUS_242  3 0 3.3330 18.515 185.9823    600
BUS_252  BUS_26_1 1 0 3.0760 17.087 171.8451    800
BUS_252  BUS_26_2 2 0 3.0760 17.087 171.8451    800
BUS_252  BUS_2_1  1 0 .81900 4.5490 45.86726   1000
BUS_252  BUS_2_2  1 0 .81900 4.5490 45.86726   1000
BUS_26_1 BUS_26_2 1 2 .00000 .00000 .0000000
BUS_26_1 BUS_27_2 1 0 1.4000 7.7760 78.22566   1400
BUS_26_1 BUS_282  1 0 4.5130 25.075 251.9558    800
BUS_26_1 BUS_292  1 0 5.9510 33.063 332.3805    800
BUS_26_2 BUS_27_2 2 0 1.4000 7.7760 78.22566   1400
BUS_26_2 BUS_282  2 0 4.5130 25.075 251.9558    800
BUS_26_2 BUS_292  2 0 5.9510 33.063 332.3805    800
BUS_282  BUS_292  1 0 1.4380 7.9880 80.42478   1800
BUS_2_1  BUS_2_2  1 2 .00000 .00000 .0000000
BUS_2_1  BUS_3_1  1 0 1.4380 7.9880 80.42478   1500
BUS_2_2  BUS_3_2  1 0 1.4380 7.9880 80.42478   1500
BUS_392  BUS_9 2  1 0 2.3810 13.225 132.8894   1000
BUS_392  BUS_9 2  2 0 2.3810 13.225 132.8894   1000
BUS_3_1  BUS_3_2  1 2 .00000 .00000 .0000000
BUS_3_1  BUS_4_1  1 0 2.0280 11.268 113.4115   1200
BUS_3_2  BUS_4_2  1 0 2.0280 11.268 113.4115   1200
BUS_4_1  BUS_4_2  1 2 .00000 .00000 .0000000
BUS_4_1  BUS_5 2  1 0 1.2190 6.7710 68.17257   1200
BUS_4_2  BUS_5 2  1 0 1.2190 6.7710 68.17257   1200
BUS_5 2  BUS_6_1  1 0 .24800 1.3750 13.82301    800
BUS_5 2  BUS_6_2  1 0 .24800 1.3750 13.82301    800
BUS_5 2  BUS_8_2  1 0 1.0660 5.9250 59.69027   1500
BUS_6_1  BUS_6_2  1 2 .00000 .00000 .0000000
BUS_6_2  BUS_7 2  1 0 .87600 4.8670 49.00885   1800
BUS_7 2  BUS_8_1  1 0 .43800 2.4330 24.50442   1200
BUS_7 2  BUS_8_2  1 0 .43800 2.4330 24.50442   1200
BUS_8_1  BUS_8_2  1 2 .00000 .00000 .0000000
BUS_8_1  BUS_9 2  1 0 3.4560 19.203 192.8938   1000
BUS_8_2  BUS_9 2  1 0 3.4560 19.203 192.8938   1200
##T
BUS_112  BUS_125  1 0 220.0 110.0 200.0 .71003 30.508 .0000000 .00000    525
BUS_125  BUS_132  1 0 110.0 220.0 200.0 .17751 7.6270 .0000000 .00000   1050
BUS_192  BUS_205  1 0 220.0 110.0 200.0 .71003 30.508 .0000000 .00000    525
BUS_192  BUS_337  1 0 220.0 27.00 1000. .06640 9.8259 .0000000 .00000   2624
BUS_205  BUS_27_1 1 0 110.0 27.00 200.0 .16598 7.4838 .0000000 .00000   1050
BUS_23_1 BUS_367  1 0 220.0 27.00 1000. .06640 9.8259 .0000000 .00000   2624
BUS_292  BUS_387  1 0 220.0 27.00 1000. .06640 9.8259 .0000000 .00000   2624
BUS_307  BUS_2_2  1 0 27.00 220.0 1000. .00100 .14800 .0000000 .00000  21383
BUS_327  BUS_102  1 0 27.00 220.0 1000. .00100 .14800 .0000000 .00000  21383
BUS_357  BUS_22_1 1 0 27.00 220.0 1000. .00100 .14800 .0000000 .00000  21383
BUS_377  BUS_252  1 0 27.00 220.0 1000. .00100 .14800 .0000000 .00000  21383
BUS_6_2  BUS_317  1 0 220.0 27.00 1000. .06640 9.8259 .0000000 .00000   2624
##R
BUS_112  BUS_125  1
BUS_125  BUS_132  1
BUS_192  BUS_205  1
BUS_192  BUS_337  1
BUS_205  BUS_27_1 1
BUS_23_1 BUS_367  1
BUS_292  BUS_387  1
BUS_307  BUS_2_2  1
BUS_327  BUS_102  1                    .0187 2.000 15   0       ASYM
BUS_357  BUS_22_1 1
BUS_377  BUS_252  1
BUS_6_2  BUS_317  1
##E
IE    .000000
